<?xml version="1.0"?>

<routes> <!-- The opening tag -->

   <!-- Vehicle types -->
   <vType id="passenger" length="2.5" width="2.0" maxSpeed="40.0" accel="2.6" decel="4.5" sigma="0.5"/>

   <!-- Routes + associated vehicles & flows -->
   
	<!-- 
   <route id="trip-0" color="Magenta" edges="8196616#2 667410673#0 37331983#0 -37331983#0 -941117494 -8196616#2 -8196616#0 667410671#0 8196629#2 8196629#3 8196629#4 8196629#5 1188278006#0 154502579#0 667410645 667410646#0 667410646#1 27115018#0 198171539#0 198171539#2 169465734#1 169465735#1 501456678 169453887#0 4400324#0 169453889#0 203971501#0 10318488#0 10318488#2 4400322#0 39606301 189054412 78419224#1 401880207 5667170#0 5667170#2 370457085#0 203486081 48654842 51348099 401880206 313982939 623090131 252773096#0 135788128#1 33814452#0 33814452#1 33814452#2 33814452#4 33814452#5 349603488#0 349603488#1 4391050#0 4391050#2 349603490#0 620340717#0 -620340716 -620340715 -154743411#2 389119027 389119030#2 23799989#0 23799989#1 4400200"/>
   <vehicle id="vehicle-0" type="passenger" color="Yellow" depart="0.0" route="trip-0"/>

   <route id="trip-1" color="Magenta" edges="25071937 4400322#0 39606301 189054412 78419225#0 33444803#0 39606300 33302833 147144449 5667165#0 48591705 48591706#0 48591706#1 204025234#0 204025234#1 48587086#1 1075393377 100132117 30743982 44037603#0 44037603#1 32233474#0 32233474#3 142518656#1 23914009#0 23914009#1 23914010#0 23914010#1 117679363#0"/>
   <vehicle id="vehicle-1" type="passenger" color="Yellow" depart="0.01" route="trip-1"/>

   <route id="trip-2" color="Magenta" edges="80344009#1 80344009#2 80344009#3 80344009#4 80344009#5 80344009#6 80344009#7 80344009#8 80344009#9 53812695#0 53812695#2 -165995262 166476872#0 166476873#0 166476873#1 166476873#2 166476873#3 166476873#4 166476873#6 52350124#0 864139689#0 22740714#0 155563747 208424304#0 132653972#0 295516788#0 -295516794#2 -155422547 -93320054 -295518616#2 -295518615#1 -775625422#1 -1165367450 -194017225#9 -194017225#7 -194017225#4 -194017225#2 -194017225#1 194017197#0 194017197#2 194017197#3 194017197#4 194017197#5 194017197#6 194017197#7 194017197#8"/>
   <vehicle id="vehicle-2" type="passenger" color="Yellow" depart="0.02" route="trip-2"/>

   <route id="trip-3" color="Magenta" edges="-15802597#2 -205612056 51900634#0 192006052 205607553#0 114692777 132405284#1 210469110#2 234272627 500272194 500272194-AddedOffRampEdge 538102222 568235970 32903006 31951782#1 636113045 23014984 22949995#0 22949995#2 332017311 237420006#0 -154755109#1 -154755109#0 -63566383 -288162959 -63530469 288162960#0 37873577 41836764 288162962#0 171952941 410644376 155570075#0 400528193 23562785 37744226#0 863733567#0 553135758 553135755#0 194017219 194017223#0 1094909138 1094909139 155585671#2 37249458#0 125491013 27104421#0 27104421#1 -434343436#3 -434343436#1 -27488602#3 220153139#0"/>
   <vehicle id="vehicle-3" type="passenger" color="Yellow" depart="0.03" route="trip-3"/>

   <route id="trip-4" color="Magenta" edges="-543531545#3 -543531545#2 543524593 925248670#0 543524596#0 543524596#2 543524596#4 34998405 37873571#0 37873571#1 37873571#2 187070213#0 4400324#0 169453889#0 203971501#0 10318488#0 10318488#2 4400322#0 39606301 189054412 78419224#1 401880207 5667170#0 5667170#2 370457085#0 203486081 48654842 381500729 4400459 1051218136 1051218134 326979311 201010751 22887858 100138692 6187383#0 863750788 484607350 141241843#0 201168470#0 144886433 384967897 186459295#0 144886432#0 144886432#1 186461131#0 6186296 51898858#0 9703473#0 9703473#2 51898854#2 401121549#1 401121549#2 401121549#3 401121549#4 56700148#1 -27488677#2 -537503934 537503934"/>
   <vehicle id="vehicle-4" type="passenger" color="Yellow" depart="0.04" route="trip-4"/>

   <route id="trip-5" color="Magenta" edges="9615512#5 9615512#6 667410650#0 667410650#1 494590272#0 494590272#1 494590274#0 494590271 494590273 160012546 500272209 494282520 37873758 23014989 -494470561#1 -494470561#0 47149088#0 47149088#1 22598791#0 32903236#1 31951782#0 31951782#1 636113045 23014984 22949994#0 22949994#1 52303559#0 52303559#1 52303559#2 32029471 -39764938#1 154755110#0 86415860#0 86415860#1 88680005#1 203971499#0 -533123612#2 -200671461 22873531#0 -83823403#2 -83823403#0 -83823409#1 -238511108#1 -238511108#0 -69366482 -238511107"/>
   <vehicle id="vehicle-5" type="passenger" color="Yellow" depart="0.05" route="trip-5"/>

   <route id="trip-6" color="Magenta" edges="-20302220#7 -20302220#4 20302220#4 20302220#5 -258844226 -52437671#2 -165995262 166476872#0 166476873#0 166476873#1 166476873#2 166476873#3 166476873#4 166476873#6 52350124#0 864139689#0 22740714#0 155563747 208424304#0 132653972#0 76128219 802322056#0 295644518#1 32260366#0 32260366#2 295644521#0 295644521#2 297011911#0 297011921#0 482274163 184227240#0 297011926#2"/>
   <vehicle id="vehicle-6" type="passenger" color="Yellow" depart="0.06" route="trip-6"/>

   <route id="trip-7" color="Magenta" edges="80344009#2 80344009#3 80344009#4 80344009#5 80344009#6 80344009#7 80344009#8 80344009#9 53812695#0 53812695#2 -165995262 166476872#0 166476873#0 166476873#1 166476873#2 166476873#3 166476873#4 166476873#6 52350124#0 864139689#0 22740714#0 155563747 28333494#0 132653975#0 967261194#0 967261194#1 967261194#2 967261194#3 4936487#0 4936487#4 4936487#5 23555461#0 404417015#0 404417014 519054180 562827468 519054176#0 23555457 23543184 555221640 144930996 23543192#0 6187381#7 384967898 384967899#0 144886434#0 751197249 22887855-AddedOnRampEdge 22887855 159165389 203999797#0 147726286#0 38028022 6187386 90439687 203486082 330663743#0 200763473 33444803#0 39606300 33302833 147144448 23568396#2 10318490#0 136413965#0 667410648 169453890#0 145345146#0 169453895 169453894 22949651 164158186 34998404#0 34998404#3 543531546#0 543531545#0 543531545#3 -543531545#3 -543531545#2"/>
   <vehicle id="vehicle-7" type="passenger" color="Yellow" depart="0.07" route="trip-7"/>

   <route id="trip-8" color="Magenta" edges="9207803 -154755073#0 -1196295672#3 -1196295672#2 4941746#0 4401673#4 4401673#5 4401673#7 4401673#8 1179783835#0 166222937#0 389193083#1 150031230 542512892#0 542512892#1 150031207#0 150031207#3 150031207#5 150031207#8 23493261#0 28542995#0 303244432#0 303244432#1 734784830#0 109063043 23493260#0 23493260#4 23493260#5 1065802294 303244426 768603506 48587065#0 48587065#1 146789540#0 146789540#1 146789541 768602479 25071937 4400322#0 39606301 189054412 78419224#1 401880207 5667170#0 5667170#2 370457085#0 203486081 48654842 381500729 4400459 1051218136 1051218134 326979311 201010751 22887858 100138692 6187383#0 863750788 484607350 141241843#0 201168470#0 144886433 384967897 186459295#0 144886432#0 144886432#1 186461131#0 6186296 51894875#0 54579742 51898857#0 28331370#0 -410097664#1 -410097663 -188066433#2 -4936454#4 4936414#0 298367344#0 282758877#0 282758877#1 482274161 295644515 295644518#1 32260366#0 32260366#2 295644521#0 295644521#2 297011911#0 297011921#0 482274163 184227240#0 184227240#2 392301453 297011901 155424465 297011903 297011906#1 392301452 -155428551#4 -155428551#1 -4936412#2 1135278714#0 1135278897#1 23283474"/>
   <vehicle id="vehicle-8" type="passenger" color="Yellow" depart="0.08" route="trip-8"/>

   <route id="trip-9" color="Magenta" edges="313981600#0 313981600#3 31691655 -213185325#10 -213185325#8 6186579#0 6186579#1 35007884#0 151057664#0 303247134 85586807#0 85586808#0 85586808#2 85586808#5 85586808#6 151069475#3 38698568#0 38698568#2 519054180 562827468 200066730#0 23706443#0 26013175#0 -4936487#7 -4936487#4 -4936487#3 -967261194#3 -967261194#2 -967261194#1 -967261194#0 491626382#0 389391931#0 28079283"/>
   <vehicle id="vehicle-9" type="passenger" color="Yellow" depart="0.09" route="trip-9"/>

   <route id="trip-10" color="Magenta" edges="155570073#0 155570073#1 24035645 174895453 142301794#0 1065800353 24040357 24037710 -7974187 383317839#0 383317839#1 24037708 443178931#0 24040356#0 41836764 288162962#0 171952941 410644376 155570090#0 155570098 385446918 1175387755 31901074 33971538 24592809 -306387100 -33805058 24231208#0 206149607#0 51348105#0 51348105#1"/>
   <vehicle id="vehicle-10" type="passenger" color="Yellow" depart="0.1" route="trip-10"/>

   <route id="trip-11" color="Magenta" edges="-133325745#0 -26423857#3 -151069473#2 992451659#0 369273247 369273250#0 147860624#0 1051218131#0 151054054#0 151054054#1 1051218132#0 1051218132#1 1051218128#0 147726287#0 1051218133#0 23571619#0 38028022 6187386 90439687 203486082 330663743#0 200763473 33444803#0 39606300 33302833 147144449 5667165#0 48591705 48591706#0 48591706#1 204025234#0 204025234#1 48587086#1 1075393377 100132117 30743982 44037603#0 44037603#1 115844479#0 301750520#0 250959563 245991947#0 115849682#0 115849682#1 1194688361 49601865 26658782#0 552845307 9621535#0 8035202#0 552845306 1121020195#1 120312036#0 120312036#1 332305006 332287592#0 9621579 27002966#0 415361368 995343657 995343654#0 555483868 415352314#0 415350389 415350390#0 210469371#0 210469371#1 400607370 44676979 100008222#0 100008222#1 -44677533#2 -44677533#0 -1050390202 -59850455#5"/>
   <vehicle id="vehicle-11" type="passenger" color="Yellow" depart="0.11" route="trip-11"/>

   <route id="trip-12" color="Magenta" edges="204177817 7976570 40236578#0 206149607#0 51348105#0 51348105#1 950274727#0 135788128#1 33814452#0 33814452#1 33814452#2 33814452#4 33814452#5 349603488#0 349603488#1 4391050#0 4391050#2 349603490#0 620340717#0 -620340716 -620340715 620340713"/>
   <vehicle id="vehicle-12" type="passenger" color="Yellow" depart="0.12" route="trip-12"/>

   <route id="trip-13" color="Magenta" edges="26166107#0 185767958#1-AddedOnRampEdge 185767958#1 313981600#0 313981600#3 31691655 -213185325#10 -213185325#8 6186579#0 6186579#1 35007884#0 151057664#0 303247134 85586807#0 85586808#0 85586808#2 85586808#5 85586808#6 151069475#3 38698568#0 38698568#2 519054180 562827468 200066730#0 23706443#0 26013175#0 -4936487#7 -4936487#4 -4936487#3 -967261194#3 -967261194#2 -967261194#1 -967261194#0 491626382#0 132653976 4936380#0 4936380#2 544649857 132951111#0 57018045#0 23656123 -28785986"/>
   <vehicle id="vehicle-13" type="passenger" color="Yellow" depart="0.13" route="trip-13"/>

   <route id="trip-14" color="Magenta" edges="237420006#0 -154755109#1 -154755109#0 -63566383 36695921#0 36695921#1 36695921#3 36695920#2 142387043#1 142387043#2 37791102#1 23487183#0 23487155#6 216475699#1 216475699#2 216475699#3 500272217#0 500272215#0 500272213#0 9615451#0 453509785 37873758 23014989 -494470561#1 -494470561#0 47149088#0 47149088#1 22598791#0 32903236#1 31951782#0"/>
   <vehicle id="vehicle-14" type="passenger" color="Yellow" depart="0.14" route="trip-14"/>

   <route id="trip-15" color="Magenta" edges="151057658 373530096 23714486#0 373530095#0 147860624#0 1051218131#0 151054054#0 151054054#1 1051218132#0 1051218132#1 1051218128#0 147726287#0 1051218133#0 23571619#0 38028022 6187386 90439687 203486082 330663743#0 200763473 33444803#0 39606300 33302833 147144449 5667165#0 48591705 48591706#0 48591706#1 204025234#0 204025234#1 48587086#1 1075393377 100132117 30743982 44037603#0 44037603#1 115844479#0 301750520#0 250959563 245991947#0 115849682#0 115849682#1 1194688361 49601865 26658782#0 552845307 9621535#0 8035202#0 552845306 1121020195#1 120312036#0 120312036#1 332305006 332287592#0 9621579 37131477#0 37131477#2 36690313#0 332299540#0 332299540#1 332299540#2 48274301#0 132405263#0 32856651#0 710992639 94584108#0 94584108#3 143547243#3 143547243#5 1188235081#0 210469111 6629259#0 6629259#2"/>
   <vehicle id="vehicle-15" type="passenger" color="Yellow" depart="0.15" route="trip-15"/>

   <route id="trip-16" color="Magenta" edges="-32635135#3 -457420988 4045161#0 4045161#1 383178036#0 383178036#1 383178034 150594021#0 150594021#3 4045164#0 4045164#5 115106778#0 115106778#2 115106778#3 26784170#0 26784170#3 667410641#0 154502579#0 667410645 667410646#0 667410646#1 4534554#0 4534554#1 369767417 23015817 22598789 37744760 23015816#0 23015816#2 34998404#0 34998404#3"/>
   <vehicle id="vehicle-16" type="passenger" color="Yellow" depart="0.16" route="trip-16"/>

   <route id="trip-17" color="Magenta" edges="4400455#0 4400455#1 4400455#3 4400456 4400450#0 4400450#1 64487982#0 64487982#1 64487982#2 -48456085#1 -48456085#0 51348112#0 374831953#0 303245744 1065789419 135786926#0 23571567#0 23571567#2 23571567#3 1051218134 326979311 201010751 22887858 100138692 6187383#0 863750788 484607350 141241843#0 201168470#0 144886433 384967897 186459295#0 144886432#0 144886432#1 186461131#0 6186296 51894875#0 54579742 51898857#0 28331370#0 -410097664#1 -410097663 -188066433#2 -4936454#4 4936414#0 298367344#0 282758877#0 282758877#1 482274161 295644515 23655651#0 23655651#1"/>
   <vehicle id="vehicle-17" type="passenger" color="Yellow" depart="0.17" route="trip-17"/>

   <route id="trip-18" color="Magenta" edges="-445406298#1 445406298#0 86144284 22740714#0 155563747 28333494#0 132653975#0 967261194#0 967261194#1 967261194#2 967261194#3 4936487#0 4936487#4 4936487#5 23555461#0 404417015#0 404417014 519054180 562827468 519054176#0 23555457 23543184 555221640 144930996 23543192#0 6187381#7 384967898 384967899#0 144886434#0 751197249 22887855-AddedOnRampEdge 22887855 159165389 203999797#0 147726286#0 38028022 6187386 90439687 203486082 330663743#0 200763473 33444803#0 39606300 33302833 147144448 23568396#2 10318490#0 136413965#0 667410648 169453890#0 145345146#0 169453895 169453894 22949651 164158186 34998404#0 34998404#3 543531546#0 543524593 23013526 158942306#0 158942306#1 34999320#0 34999320#1 34999320#2 34999320#3 22598778#3 -1049201852 253654387#0 405035240 379230778#0"/>
   <vehicle id="vehicle-18" type="passenger" color="Yellow" depart="0.18" route="trip-18"/>

   <route id="trip-19" color="Magenta" edges="-32064261 -32064260#8 4390557#0 4390554#1 29217219#0 29217219#1 167324659#0 55940134#0 186463490 930736467 930736468 835792564 930736464 930736465 154755102#0 154755102#1 154755102#2 -8096211#2 150031207#8 23493261#0 28542995#0 303244432#0 303244432#1 734784830#0 109063043 23493260#0 23493260#4 23493260#5 1065802294 303244426 768603506 48587065#0 48587065#1 146789540#0 146789540#1 146789541 768602479 25071937 4400322#0 39606301 189054412 78419224#1 401880207 5667170#0 5667170#2 370457085#0 203486081 48654842 381500729 4400459 1051218136 1051218134 326979311 201010751 22887858 23686361 23686406"/>
   <vehicle id="vehicle-19" type="passenger" color="Yellow" depart="0.19" route="trip-19"/>

   <route id="trip-20" color="Magenta" edges="23648522#1 -23648580 23648571#3 23648571#4 23648571#5 23648571#6 -28372703#4 -28372703#3 -28372703#1 28372691#0 424942585#0 29157974 157140435 29157976 482274166 289758056 256585268 482274168 295516776 482274169 155419935#0 -93320054 155428548#0 -155428548#2"/>
   <vehicle id="vehicle-20" type="passenger" color="Yellow" depart="0.2" route="trip-20"/>

   <route id="trip-21" color="Magenta" edges="194017225#6 194017225#9 1165367450 775625422#0 295518615#0 295518616#0 59458722#0 155422547 295516794#0 295516792#0 155422548 155424467 298367345#0 282758879 58802086#0 4936454#0 188066433#0 410097663 410097664#0 301155052#0 82878588#0 82878588#1 518277231 151069478#0 165975104#0 165975104#3 6186305#0 303246755#0 1053951009#0 6187381#0 6187381#3 6187381#7 384967898 23686296#0 144886435#0 144905116 23686314#1 384905710 -536950979 -141241832 141206211 141206215#0 438437148 141206218#0 100138582#0 100138582#1 100138582#2 1174540043#0 168912461 23562787#0 450655784 155570076 156976899 527349385 155570073#0 155570073#1 24035646#0 171952935#0 37873581 288162958#0 171952936#0 216475699#1 216475699#2 216475699#3 500272217#0 500272215#0 500272213#0 9615451#0 37873582#0 22598787#0 22598787#1 22598787#2 22598783#0 1189611899 22598769#9 22598769#10 37873570#0"/>
   <vehicle id="vehicle-21" type="passenger" color="Yellow" depart="0.21" route="trip-21"/>

   <route id="trip-22" color="Magenta" edges="41770577#1 8196681#8 4534418 206006203#0 202849696#0 202849696#2 34998402#0 543524588#0 543524590#0 543524593 925248670#0 543524596#0 543524596#2 543524596#4 34998405 37873571#0 37873571#1 37873571#2 187070213#0 402179132 37873574 175589820 315921077#0 315921077#1 23015860#0 23015860#2 63589540 301750521 23015861#0 44037603#0 44037603#1 115844479#0"/>
   <vehicle id="vehicle-22" type="passenger" color="Yellow" depart="0.22" route="trip-22"/>

   <route id="trip-23" color="Magenta" edges="151057637#5 31691107 185767958#1-AddedOnRampEdge 185767958#1 313981600#0 313981600#3 31691655 -213185325#10 -213185325#8 6186579#0 6186579#1 513972757 66389905#0 66389905#3 513972758#0 513972758#2 24456690 513972763#0 513972760#0 27463260 24456691#0 24456691#1 24456691#2 24456691#3 8677670#0 350444359 350444361#0 166615190#0 8677666 349914644 23572047 204177817 7976570"/>
   <vehicle id="vehicle-23" type="passenger" color="Yellow" depart="0.23" route="trip-23"/>

   <route id="trip-24" color="Magenta" edges="401980147 37131476#0 400528189 1161134890#0 675690809#0 675690809#2 675690809#3 675690805 4531785#0 4531785#1 4531785#1-AddedOffRampEdge 204177818#0 383317838 36772534#0 383317839#0 383317839#1 24037708 443178931#0 24040356#0 41836764 288162962#0 171952941 410644376 155570075#0 400528193 111465046#0 156976894 675775079 465425612#0 100138582#4 100138582#5 100138582#6 23686464#0 -141206207 -141206215#1 -141206211 -487009001#1 536950979 141206202 1051212103 450825837 141241836 484607350 141241843#0 201168470#0 144886433 384967897 186459295#0 144886432#0 144886432#1 186461131#0 6186296 51894875#0 54579742 51898857#0 28331370#0 -410097664#1 -410097663 -188066433#2 -4936454#4 4936414#0 298367344#0 -298367345#2 -155424467 -295525106 -295516792#2 157157762#0 203090657 295516779#0 76128220#0 349777921#0 132653970#0 -22740714#1 -135556225#2 -445406298#1 445406298#0"/>
   <vehicle id="vehicle-24" type="passenger" color="Yellow" depart="0.24" route="trip-24"/>

   <route id="trip-25" color="Magenta" edges="428268765#0 234896137#0 428268774#0 203110535#0 203110535#2 755451161 155329357#0 171952943#0 171952943#3 161704958#0 161704958#2 161704958#3 220153137#0 220153139#0 220153139#3 220153139#4 553135747 1046121213#0 1094909137#0 37249455#0 37249455#1 37249455#2 194017220#0 194017220#1 194017220#3 194017220#7 194017220#8 863733568#0 863733569 268302920 553135749 156976896#0 23562786 450655784 155570076 156976899 527349385 155570073#0 155570073#1 24035646#0 171952935#0 37873581 142301793 142389698 37791102#0 37791102#1 37791102#2 37791102#3 22949991 202650028#1 202650028#2 202650029#0 202650029#1 405531873#0 154755109#1 219188460#0 219188460#2 219188460#4 219188460#5 219188460#6 315921078#0 315921078#1 154755110#0 86415848 175589819#0 175589819#1 175589819#2 154333001#1 169453888#0 145345137#0 1065802292 667410647 150039007#0 150039007#1 150039007#2 667410644#0 9823971#0 9823971#1 9823971#2 9823971#3 857811040 34896249#1 154755136 8225132"/>
   <vehicle id="vehicle-25" type="passenger" color="Yellow" depart="0.25" route="trip-25"/>

   <route id="trip-26" color="Magenta" edges="-8225101 -8096211#2 150031207#8 23493261#0 28542995#0 303244432#0 303244432#1 734784830#0 109063043 23493260#0 23493260#4 23493260#5 1065802294 303244426 768603506 4400319 48587087 48587086#0 48587086#1 1075393377 100132117 30743982 44037603#0 44037603#1 115844479#0 301750520#0 250959563 245991947#0 115849682#0 115849682#1 1194688361 49601865 26658780#0 451394483#0 210469121#0 210469121#1 210469121#2 51163169 278688171#0 20907575#0 20907575#2 9872926 51900632 205612056 15802601#0 20346105#0"/>
   <vehicle id="vehicle-26" type="passenger" color="Yellow" depart="0.26" route="trip-26"/>

   <route id="trip-27" color="Magenta" edges="83703647#4 83703645 23493040 64488045 917044790#0 917044790#1 23493177#1 995578820 154755122#3 29206900 -26241617 26241634 4400194 1020500542#0 1020500542#1 1020500866#1 177147101#0 109560724 820405257 527125160#0 7996807#1 7996807#2 525356719#0 525356718 4979118 27463238#0 27463238#2 27463238#3 205729240#0 23543154#0 23543154#1 23543154#2 23543146#0 23543146#1 102169317 -23543182 896347484 23543181#0 519054180 562827468 200066730#0 23706443#0 26013175#0 -4936487#7 -4936487#4 -4936487#3"/>
   <vehicle id="vehicle-27" type="passenger" color="Yellow" depart="0.27" route="trip-27"/>

   <route id="trip-28" color="Magenta" edges="28298103 -28298103 -156992240 553135753#3 604917511 194017401#0 6186300 6186304 51898857#0 28331370#0 -410097664#1 -410097663 -188066433#2 -4936454#4 4936414#0 298367344#0 -298367345#2 -155424467 -295525106 -295516792#2 157157762#0 203090657 295516779#0 76128220#0 349777921#0 132653970#0 -22740714#1 -864139689#6 -52350124#1 -166476873#7 -166476873#5 -166476873#3 -166476873#2 -166476873#1 -166476873#0 149633123 165995262 52437671#0 -99152178#5 -99152178#2 -61321545#13 -61321545#10 -61321545#9 -61321545#7 -61321545#5 -61321545#4 -20302904#8 -20302904#7 -20302904#6 -20302904#5"/>
   <vehicle id="vehicle-28" type="passenger" color="Yellow" depart="0.28" route="trip-28"/>

   <route id="trip-29" color="Magenta" edges="37744243#0 23562785 37744226#0 863733568#0 863733569 268302920 553135749 156976896#0 23562786 450655784 155570076 156976899 527349385 155570073#0 155570073#1 24035646#0 171952935#0 37873581 142301793 142389698 37791102#0 37791102#1 37791102#2 37791102#3 22949991 202650028#1 202650028#2 202650029#0 202650029#1 405531873#0 154755109#1 219188460#0 219188460#2 219188460#4 219188460#5 219188460#6 315921078#0 315921078#1 154755110#0 86415848 175589819#0 175589819#1 175589819#2 154333001#1 169453888#0 145345137#0 1065802292 667410647 150039007#0 150039007#1 150039007#2 667410644#0 -1188278006#2 -8196629#6 -8196629#4 10212092#0 -20185105 24693845#0 24693845#1"/>
   <vehicle id="vehicle-29" type="passenger" color="Yellow" depart="0.29" route="trip-29"/>

   <route id="trip-30" color="Magenta" edges="-133325745#0 -26423857#3 -151069473#2 992451659#0 369273247 369273250#0 37276365#0 37276365#3 37276365#4 66389908#0 66389908#3 201673478#0 995794543#0 -154738024#2 -6186579#0 213185325#8 213185325#9 151057637#5 31691107 185767958#1-AddedOnRampEdge 185767958#1 36454807#0"/>
   <vehicle id="vehicle-30" type="passenger" color="Yellow" depart="0.3" route="trip-30"/>

   <route id="trip-31" color="Magenta" edges="23479875#1 23479875#2 -7974187 383317839#0 383317839#1 24037708 443178931#0 24040356#0 41836764 24035788#0 37873581 288162958#0 171952936#0 216475699#1 216475699#2 216475699#3 500272217#0 500272215#0 500272213#0 9615451#0 453509785 37873758 364957117 23013528#0 48012544#0"/>
   <vehicle id="vehicle-31" type="passenger" color="Yellow" depart="0.31" route="trip-31"/>

   <route id="trip-32" color="Magenta" edges="-28285056#1 -28367797 -23705833 23705824 519093177 519093179#1 23654646 370976790#0 6186298 54579741#0 1053951009#0 6187381#0 6187381#3 6187381#7 384967898 23686296#0 144886435#0 144905116 23686314#1 384905710 -536950979 -141241832 141206211 141206215#0 438437148 141206218#0 100138582#0 100138582#1 100138582#2 1174540043#0 168912461 23562787#0 450655784 155570076 156976899 527349385 155570073#0 155570073#1 24035646#0 171952935#0 37873581 288162958#0 171952936#0 216475699#1 216475699#2 216475699#3 500272217#0 500272215#0 500272213#0 9615451#0 453509785 37873758 364957117 23013528#0 48012544#0 48012544#2 48012544#3 480375808 1070283593"/>
   <vehicle id="vehicle-32" type="passenger" color="Yellow" depart="0.32" route="trip-32"/>

   <route id="trip-33" color="Magenta" edges="4390554#0 4390554#1 29217219#0 29217219#1 167324659#0 55940134#0 186463490 930736467 930736468 835792564 930736464 930736465 154755102#0 154755102#1 154755102#2 -8096211#2 150031207#8 23493261#0 28542995#0 303244432#0 303244432#1 734784830#0 109063043 23493260#0 23493260#4 23493260#5 1065802294 303244426 768603506 48587065#0 48587065#1 146789540#0 146789540#1 146789541 768602479 25071937 4400322#0 39606301 189054412 78419224#1 401880207 5667170#0 5667170#2 370457085#0 203486081 48654842 381500729 4400459 1051218136 1051218134 326979311 201010751 22887858 100138692 6187383#0 863750788 484607350 141241843#0 201168470#0 144886433 384967897 186459295#0 144886432#0 144886432#1 186461131#0 6186296 51898858#0 9703473#0 9703473#2 51898854#2 401121551 -260965267#6 -260965267#5 -260965267#4 -260965267#3 -260965267#2 -260965267#1 -260965267#0 -28298106 -260965266#0 260965266#0"/>
   <vehicle id="vehicle-33" type="passenger" color="Yellow" depart="0.33" route="trip-33"/>

   <route id="trip-34" color="Magenta" edges="24456690 513972763#0 38244293#2 131916333#0 150202769 7976480#0 7976480#1 150196042#0 150196042#1 620340717#0 -620340716 -620340715 -154743411#2 -620340714#2 -180723491#1 -180723489#2 -180723490 -620340712#1 -28889303#0 -620340711#2 31691107 185767958#1-AddedOnRampEdge 185767958#1 36454807#0 313981599#0 313981598#0 150031205#0 150031205#1 150031205#8 145474195#0 4380937#0 541416569#0 150031262#0 219098058 51113317 154755095#0 154755095#1 26811074#0 26811074#1 26811074#2 26811074#3 24900481#0"/>
   <vehicle id="vehicle-34" type="passenger" color="Yellow" depart="0.34" route="trip-34"/>

   <route id="trip-35" color="Magenta" edges="361022829 552845304#0 392510532#0 392510532#2 1202912250 552845306 1121020195#1 120312036#0 120312036#1 332305006 332287591#0 149665000 675690809#2 675690809#3 675690805 4531785#0 4531785#1 4531785#1-AddedOffRampEdge 204177818#0 383317838 36772534#0 383317839#0 383317839#1 24037708 443178931#0 24040356#0 41836764 288162962#0 171952941 410644376 155570075#0 400528193 111465046#0 156976894 675775079 465425612#0 100138582#4 100138582#5 100138582#6 23686464#0 -141206207 -141206215#1 -141206211 -487009001#1 536950979 141206202 1051212103 450825837 141241836 484607350 141241843#0 201168470#0 144886433 384967897 186459295#0 144886432#0 144886432#1 186461131#0 6186296 51894875#0 54579742 51898857#0 28331370#0 -410097664#1 -410097663 -188066433#2 -4936454#4 4936414#0 298367344#0 -298367345#2 -155424467 -295525106 -295516792#2 -295516794#2 -155422547 155422547 941881199"/>
   <vehicle id="vehicle-35" type="passenger" color="Yellow" depart="0.35" route="trip-35"/>

   <route id="trip-36" color="Magenta" edges="145398206 9621579 27002966#0 415361368 995343657 995343654#0 555483868 415352314#0 415350389 415350390#0 210469371#0 210469371#1 400607370 44676979 45332573#0 555483865#0 555483865#1 555483865#2 33841554#0 33841554#1 33841554#2 -555483865#3"/>
   <vehicle id="vehicle-36" type="passenger" color="Yellow" depart="0.36" route="trip-36"/>

   <route id="trip-37" color="Magenta" edges="132653974 132653975#0 967261194#0 967261194#1 967261194#2 28079281#0 28079281#1 28079281#2 28286699 -259188337 28328861#1 24555276#0 24555276#2 4936454#0 188066433#0 410097663 410097664#0 301155052#0 82878588#0"/>
   <vehicle id="vehicle-37" type="passenger" color="Yellow" depart="0.37" route="trip-37"/>

   <route id="trip-38" color="Magenta" edges="-27003199#3 -27003199#2 -27003199#1 27003200#0 27003200#1 149664997#0 675690809#3 675690805 4531785#0 4531785#1 4531785#1-AddedOffRampEdge 204177818#0 383317838 36772534#0 383317839#0 383317839#1 24037708 443178931#0 24040356#0 41836764 288162962#0 171952941 410644376 155570075#0 400528193 111465046#0 156976894 675775079 465425612#0 100138582#4 100138582#5 100138582#6 23686464#0 -141206207 -141206215#1 -141206211 -487009001#1 536950979 141206202 1051212103 450825837 141241836 484607350 141241843#0 201168470#0 144886433 384967897 186459295#0 144886432#0 144886432#1 186461131#0 6186296 51894875#0 54579742 51898857#0 28331370#0 -410097664#1 -410097663 -188066433#2 -4936454#4 4936414#0 298367344#0 -298367345#2 -155424467 10070371#0"/>
   <vehicle id="vehicle-38" type="passenger" color="Yellow" depart="0.38" route="trip-38"/>

   <route id="trip-39" color="Magenta" edges="-155723696 49524619#2 5367200 755463545 755463544#0 52394261#0 755463547#0 755463549#0 755463550#0 755463555 297011908#0 297011908#2 -297011901 -392301453 26704577#0 184227237 297011916#0 297011929#1 297011929#3 297011929#4 295644517 76128219 802322056#0 295644520#0 282758878 58802086#0 4936454#0 188066433#0 410097663 410097664#0 301155052#0 82878588#0 82878588#1 518277231 151069478#0 165975104#0 165975104#3 6186305#0 303246755#0 1053951009#0 6187381#0 6187381#3 6187381#7 384967898 23686296#0 144886435#0 144905116 23686314#1 384905710 -536950979 -141241832 141206211 141206215#0 438437148 141206218#0 100138582#0 100138582#1 100138582#2 100138582#3 100138582#4 141225725#0 -142505420#1 -142505420#0"/>
   <vehicle id="vehicle-39" type="passenger" color="Yellow" depart="0.39" route="trip-39"/>

   <route id="trip-40" color="Magenta" edges="293814015#4 1106964496#1 992479899#1 -132405274#2 332299540#0 332299540#1 202446789#0 294399315 48274790 332301933#0 332301933#1 995343657 995343654#0"/>
   <vehicle id="vehicle-40" type="passenger" color="Yellow" depart="0.4" route="trip-40"/>

   <route id="trip-41" color="Magenta" edges="203290351#1 1049201852 353073074#0 353073074#1 353073074#4 353073074#6 398530200#0 543524588#0 543524590#0 543524593 925248670#0 543524596#0 543524596#2 543524596#4 34998405 37873571#0 37873571#1 37873571#2 187070213#0 4400324#0 169453889#0 203971501#0 10318488#0 10318488#2 4400322#0 39606301 189054412 78419224#1 401880207 5667170#0 5667170#2 370457085#0 203486081 48654842 381500729 4400459 1051218136 1051218134 326979311 201010751 22887858 100138692 6187383#0 863750788 484607350 141241843#0 201168470#0 144886433 384967897 186459295#0 144886432#0 144886432#1 186461131#0 6186296 51894875#0 54579742 51898857#0 28331370#0 -410097664#1 -410097663 -188066433#2 -4936454#4 4936414#0 298367344#0 -298367345#2 -155424467 -295525106 -295516792#2 -295516794#2 -155422547 -93320054 -295518616#2 -295518615#1 -775625422#1 -1165367450 -194017225#9 -194017225#7 -194017225#4 -194017225#2 -194017225#1 194017197#0 194017197#2 194017197#3 194017197#4 194017197#5 -194017197#5 -194017197#4 -194017197#3 -194017197#2"/>
   <vehicle id="vehicle-41" type="passenger" color="Yellow" depart="0.41" route="trip-41"/>
