<?xml version="1.0"?>

<routes> <!-- The opening tag -->

   <!-- Vehicle types -->
   <vType id="passenger" length="5.0" width="2.0" maxSpeed="70.0" accel="2.6" decel="4.5" sigma="0.5"/>

   <!-- Routes + associated vehicles & flows -->

   <route id="trip-0" color="Magenta" edges="-88561221#0 88561221#0 88561221#1 228056325#25 951228304#0 951228304#2 951228304#3 1060235884#0 1060235884#2 1060235884#3 88561230#0 88561230#2 88561230#3 88561230#4 168663960#0 168663960#4 168663960#6 168663960#7 168663960#10 1028619491#0 286703478#1 286703478#2 286703478#3 228076698#14 228076698#15 746884464#1 746884464#2 746884464#5 296692338#12 296692338#14 296692338#15 168664004#0"/>
   <vehicle id="vehicle-0" type="passenger" color="Yellow" depart="0.0" route="trip-0"/>

   <route id="trip-1" color="Magenta" edges="-228511420 31096719#1 31096719#2 31096719#3 1028570796#1 1028570796#2 1028570796#3 168663961#1 168663961#2 168663961#3 168663961#4 168663961#5 168663961#6 168663961#7 1028619490#0 1028619490#2 286703477#2 286703477#4 -286703477#4"/>
   <vehicle id="vehicle-1" type="passenger" color="Yellow" depart="0.01" route="trip-1"/>

   <route id="trip-2" color="Magenta" edges="-44886564#3 91096669#11 168663960#0 168663960#4 168663960#6 168663960#7 168663960#10 1028619491#0 286703478#1 286703478#2 286703478#3 286703478#4 286703478#5 286703478#6 286703478#8 168663959#1 168663959#2 168663959#4 228090251#1 228090251#3 184293865#1 184293865#2 184293865#4 31053660#1 31053660#2"/>
   <vehicle id="vehicle-2" type="passenger" color="Yellow" depart="0.02" route="trip-2"/>

   <route id="trip-3" color="Magenta" edges="115591837#9 115591853#5 115591853#6 228076698#10 228076698#12 286703478#4 286703478#5 286703478#6 286703478#8 168663959#1 168663959#2 168663959#4 228090251#1 228090251#3 184293865#1 184293865#2 184293865#4 184293865#6 184293865#7 174022712#1 174022712#2 425640363 30998553#0"/>
   <vehicle id="vehicle-3" type="passenger" color="Yellow" depart="0.03" route="trip-3"/>

   <route id="trip-4" color="Magenta" edges="671522408#5 671522408#6 671522408#7 1060226510#0 1060226507#0 1060226507#3 365706961#0 365706961#2 365706961#3 -88561230#6 -88561230#3 -88561230#2 -88561230#1 -1060235884#4 -1060235884#2 -1060235884#1 -951228306#1 -951228304#2 -951228304#1 71470194#0 749829569#4 749829569#5 749829569#7 749829569#9 749829569#11 749829569#13 -702450016#3 -702450016#1 -23288277#1 -70364448#2 -70364448#0 71470177#7 71470177#9 70364449#12 70364449#14"/>
   <vehicle id="vehicle-4" type="passenger" color="Yellow" depart="0.04" route="trip-4"/>

   <route id="trip-5" color="Magenta" edges="23243740#6 -228056325#8 139116562#0 139116562#3 139116562#5 685193060#0 685193060#2 -1057050913#3 -1057050913#1 1060235884#0 1060235884#2 1060235884#3 88561230#0 88561230#2 88561230#3 88561230#4 45018631#0 44886564#2"/>
   <vehicle id="vehicle-5" type="passenger" color="Yellow" depart="0.05" route="trip-5"/>

   <route id="trip-6" color="Magenta" edges="120588459#2 120588459#3 120588459#4 120588459#5 120588459#6 120588459#7 120588459#8 120588459#9 120588459#10 120588459#11 103945938#3 103945938#4 103945938#5 103945938#6 103945938#7 103945938#8 103945938#9 103945938#10 71470190#11 71470190#12 71470190#13 71470190#14 71470190#15 1057050911 190552057#1 190552057#4 190552057#5 190552057#8 951228305#0 951228305#2 1057050913#0 1057050913#2 1057050913#4 1057050913#6 1057050913#7 1057050913#8 228090234#0 228090234#2 228090234#3 228090234#4 228090234#6 228090234#8 228090234#9 -185216975#16 -185216975#14 -185216975#13 -185216975#10 -185216975#9 -185216975#8 -185216975#6 -185216975#5 -185216975#3 -185216975#1 -58672755#12 -58672755#7 -58672755#6 -116436236#1 154800567#0 154800564#0 154800564#1 154800564#3 154800564#4"/>
   <vehicle id="vehicle-6" type="passenger" color="Yellow" depart="0.06" route="trip-6"/>

   <route id="trip-7" color="Magenta" edges="30998594#5 131600104#0 30969218#1 30969218#2 30969218#7 30969218#10 101134275#0 101134275#1 101134275#2 102126347#1 102126347#2 102126347#3 102126347#4 425464570#0 425464570#3 425464569 304727708 528899353#1 528899353#2 184293866#0 184293866#1 184293866#3 184293866#7 168663957#1 228090233#0 228090233#2 228090233#3 228090233#5 228090233#6 228090233#9 1057052866#1 184315497#1 -667865209#4 -667865209#3 -667865209#2 -667865209#0 -708004651#3 -708004651#1 -667865208#6 -120525524#3 497838880#0"/>
   <vehicle id="vehicle-7" type="passenger" color="Yellow" depart="0.07" route="trip-7"/>

   <route id="trip-8" color="Magenta" edges="170624726#1 170624726#2 170624726#3 1028573263#1 1028573263#3 44884985#0 44884985#2 44884985#3 44884985#4 44884985#5 44884985#6 44884985#7 44884985#8 44884985#9 44884985#10 1028573262#0 1028573262#1 -23288368#2"/>
   <vehicle id="vehicle-8" type="passenger" color="Yellow" depart="0.08" route="trip-8"/>

   <route id="trip-9" color="Magenta" edges="-120588485#0 120588485#0 103945938#9 103945938#10 71470190#11 71470190#12 71470190#13 71470190#14 71470190#15 1057050911 190552057#1 190552057#4 190552057#5 190552057#8 951228305#0 951228305#2 1057050913#0 1057050913#2 -685193060#4 -685193060#0 -139116562#5 -139116562#4 -139116562#1 228056325#8 -23243740#7 -23243740#5 237801848#0 237801848#1 237801848#2 237801848#3 237801848#4 237801848#5"/>
   <vehicle id="vehicle-9" type="passenger" color="Yellow" depart="0.09" route="trip-9"/>

   <route id="trip-10" color="Magenta" edges="31303247#12 -31303247#12 -31303247#11 184314060#4 184314060#7 184314060#8 -228076698#15 -228076698#14 168663961#3 168663961#4 168663961#5 168663961#6 168663961#7 744266431#0 744266431#3 744266431#5 744266431#9 744266431#11 1057050905#1 1057050905#3 1057050908#0 71470185#0 71470185#1 71470185#2 -228514822#9 -228514822#7 -228514822#6 -228514822#4 -228514822#2 -228514822#1 -228514822#0 88083349#8 -743368111#1"/>
   <vehicle id="vehicle-10" type="passenger" color="Yellow" depart="0.1" route="trip-10"/>

   <route id="trip-11" color="Magenta" edges="154800564#0 -58672759#2 -58672759#1 -58672759#0 58672754#2 58672754#3 58672754#4 46655387#2 -365706952#1 1060226510#0 1060226507#0 1060226507#3 365706961#0 365706961#2 365706961#3 168663960#0 168663960#4 168663960#6 168663960#7 168663960#10 1028619491#0 286703478#1 286703478#2 286703478#3 286703478#4 286703478#5 286703478#6 -31053515#0 -168663993#1 168663990 31096752#0 31096752#2 31096752#4 31096752#6 -31096752#6"/>
   <vehicle id="vehicle-11" type="passenger" color="Yellow" depart="0.11" route="trip-11"/>

   <route id="trip-12" color="Magenta" edges="1028570790#6 172627267#1 172627267#2 172627267#4 172627267#5 172627267#6 198929898#0 198929898#2 198929898#3 1028570792#0 1028570792#2 1028570792#3 45018632#0 45018632#2 45018632#4 45018632#5 45018632#6 45018632#7 1056328008#0 91096669#0 91096669#1 91096669#3 91096669#4 91096669#5 91096669#6 184250113#1 184250113#3 184250113#4 -174022595#4 -174022595#0 -286703477#6 -286703477#4 -286703477#3 -286703477#1 -1028619490#1 744266431#0 744266431#3 744266431#5 744266431#9 744266431#11 1057050905#1 1057050905#3 1057050908#0 71470185#0 71470185#1 71470185#2 71470185#3 -103945938#10 -103945938#9 -103945938#8 -103945938#7 -103945938#6 120588896#8 120588896#9 120588896#10"/>
   <vehicle id="vehicle-12" type="passenger" color="Yellow" depart="0.12" route="trip-12"/>

   <route id="trip-13" color="Magenta" edges="190433605#2 190433605#3 190433605#4 190433605#5 190433605#7 951228304#3 1060235884#0 1060235884#2 1060235884#3 88561230#0 88561230#2 88561230#3 88561230#4 45018631#0 45018631#2 45018631#3 45018631#5 45018631#6 45018631#7 45018631#8 45018631#10 44884354#1 174022686#0 174022686#3 174022686#5 174022686#6 174022686#7 174022711#3 209210741#0 154125460 -44884346#1 1056330398#1 44884347#0 209366292#0 209366292#2 209366292#5 174022673 623362974#0 623362974#1 623362974#2 44883356#0 -1028258366#2 -44883357#12 -44883357#9"/>
   <vehicle id="vehicle-13" type="passenger" color="Yellow" depart="0.13" route="trip-13"/>

   <route id="trip-14" color="Magenta" edges="-88083349#11 88083349#10 88083349#12 88083349#13 88083349#14 749995746#6 951228305#0 951228305#2 1060235884#0 1060235884#2 1060235884#3 88561230#0 88561230#2 88561230#3 88561230#4 45018631#0 45018631#2 45018631#3 45018631#5 45018631#6 45018631#7 45018631#8 45018631#10 1056328009#0 91096667 91096670#1 91096670#2 91096670#3 91096670#6 1028570793#0 129219190#0 1028573263#3 44884985#0 44884985#2 44884985#3 44884985#4 44884985#5 44884985#6 44884985#7 44884985#8 44884985#9 44884985#10 -376769524#15 655185988"/>
   <vehicle id="vehicle-14" type="passenger" color="Yellow" depart="0.14" route="trip-14"/>

   <route id="trip-15" color="Magenta" edges="-88083349#5 -88083349#3 31280557#1 31280557#3 31280557#5 31280557#7 31280557#9 31280557#11 31280557#14 749995745#1 31280557#16 951228304#0 951228304#2 951228304#3 1060235884#0 1060235884#2 1060235884#3 88561230#0 88561230#2 88561230#3 88561230#4 45018631#0 45018631#2 45018631#3 45018631#5 45018631#6 45018631#7 45018631#8 45018631#10 1056328009#0 91096667 91096670#1 91096670#2 91096670#3 91096670#6 1028570793#0 129219190#0 1028573263#3 44884985#0 44884985#2 44884985#3 44884985#4 44884985#5 44884985#6 44884985#7 44884985#8 44884985#9 44884985#10 1028573261#1 1028573261#3 1028573261#4 184580013"/>
   <vehicle id="vehicle-15" type="passenger" color="Yellow" depart="0.15" route="trip-15"/>

   <route id="trip-16" color="Magenta" edges="792462092#5 -161392608#1 261473812#3 161392598#0 161392598#1 161392598#2 -161392513#2 -161392513#1 -161392513#0 116436279#14 616560955#0 616560955#1 616560955#2 616560955#5 616560955#7 616560955#8 616560955#9 71502569#7 71502569#8 71502569#9 71502569#10 71502569#11 71502569#12 71502569#14 71502569#15 71502569#17 71502569#18 71502569#20 71502569#21 -261480762#1 -313849721#17 -313849721#16 -313849721#15 -313849721#14 -313849721#13 -23243742#4 -23243742#3 -23243742#2 -23243742#1 -23243742#0 23243740#0 -23243740#0"/>
   <vehicle id="vehicle-16" type="passenger" color="Yellow" depart="0.16" route="trip-16"/>

   <route id="trip-17" color="Magenta" edges="174022659#3 174022659#4 174022659#5 120588459#5 120588459#6 120588459#7 120588459#8 120588459#9 120588459#10 120588459#11 103945938#3 103945938#4 103945938#5 103945938#6 103945938#7 103945938#8 103945938#9 103945938#10 71470190#11 71470190#12 71470190#13 71470190#14 71470190#15 1057050911 190552057#1 190552057#4 190552057#5 190552057#8 951228305#0 951228305#2 1057050913#0 1057050913#2 1057050913#4 1057050913#6 1057050913#7 1057050913#8 1057054855#0 1057054855#2 1057054855#3 1057054855#4 1057054855#5 -1057054858#23 -1057054858#22 -1057054858#20 -467596276#5 -467596276#3"/>
   <vehicle id="vehicle-17" type="passenger" color="Yellow" depart="0.17" route="trip-17"/>

   <route id="trip-18" color="Magenta" edges="-23288278#5 -23288278#4 -23288278#3 669103389#0"/>
   <vehicle id="vehicle-18" type="passenger" color="Yellow" depart="0.18" route="trip-18"/>

   <route id="trip-19" color="Magenta" edges="-168683414#3 168683414#2 71470206#9 71470206#11 71470206#12 71470206#14 71470206#15 71470206#16 71470206#18 71470206#21 71470206#22 71470206#25 71470206#28 71470206#29 168683396#0 168683396#1 70364449#0 168683418#0 120588694#0 120588694#1 120588694#2 120588694#3 120588694#4 120588694#5 120588688 70364449#7 70364449#9 103945932#0 103945932#2 103945932#3 136358969#2"/>
   <vehicle id="vehicle-19" type="passenger" color="Yellow" depart="0.19" route="trip-19"/>

   <route id="trip-20" color="Magenta" edges="103945929#0 199916861#0 751972892#16 71470190#9 71470190#11 71470190#12 71470190#13 71470190#14 71470190#15 1057050911 190552057#1 190552057#4 190552057#5 190552057#8 951228305#0 951228305#2 1057050913#0 1057050913#2 1057050913#4 1057050913#6 1057050913#7 1057050913#8 228090234#0 228090234#2 228090234#3 228090234#4 228090234#6 228090234#8 228090234#9 228090234#11 228090234#12 228090234#13 1144401620#0 1144401620#2 1144401620#3 228056323#1 228056323#2 116436247#0 116436247#2"/>
   <vehicle id="vehicle-20" type="passenger" color="Yellow" depart="0.2" route="trip-20"/>

   <route id="trip-21" color="Magenta" edges="-749221674 749221674 -115591849#4 -115591849#3 -115591849#2 -115591849#1 168663961#6 168663961#7 1028573258#0 286703487#1 286703487#3 286703487#5 286703487#7 286703487#9 286703487#10 286703487#12 286703487#13 286703487#15 163816326#0 163816326#2 88954527#0 88954527#2 197530515#5 197530515#7 197530515#8 197530515#9 197530515#10 197530515#12 197530515#13 197530515#14 197530515#15 197530515#16 197530515#17 261368286#12 261368286#14 261368286#15 261368286#16 261368286#17 261368286#20 261368286#21 261368286#22 261368286#23 261368286#24 261368286#25 261368286#27 261368286#29 261368286#30 261368286#31 185216975#4 185216975#6 -185216975#6"/>
   <vehicle id="vehicle-21" type="passenger" color="Yellow" depart="0.21" route="trip-21"/>

   <route id="trip-22" color="Magenta" edges="184315507#1 -184315507#1 -184315507#0 228090233#6 228090233#9 23298952#0 23298952#2 174022625 1057050907#0 1057050907#2 1057050907#4 1057050908#0 71470185#0 71470185#1 71470185#2 71470185#3 71470185#4 70350396#2 70350396#5 120588482#0"/>
   <vehicle id="vehicle-22" type="passenger" color="Yellow" depart="0.22" route="trip-22"/>

   <route id="trip-23" color="Magenta" edges="120588485#2 120588485#3 -228514822#12 -228514822#11 71470190#12 71470190#13 71470190#14 71470190#15 1057050911 1057050910#1 1057050910#3 1057050910#4 1057050910#5 986505886#4 986505886#7 228076698#1 228076698#3 228076698#4 228076698#5 115591850#5 115591844#6 115591856#1"/>
   <vehicle id="vehicle-23" type="passenger" color="Yellow" depart="0.23" route="trip-23"/>

   <route id="trip-24" color="Magenta" edges="-154800587#5 -154800587#4 154800535#0 154800535#1 154800535#2 154800535#3 154800535#4 154800535#5 -228090234#12 -228090234#11 -228090234#10 -228090234#8 -228090234#7 34078514#0 34078514#2 1057054858#14 1057054858#17 -121653057 121653055#3 121653055#4 121653111#1"/>
   <vehicle id="vehicle-24" type="passenger" color="Yellow" depart="0.24" route="trip-24"/>

   <route id="trip-25" color="Magenta" edges="152343297#0 44886562#9 365706961#0 365706961#2 365706961#3 -88561230#6 -88561230#3 -88561230#2 -88561230#1 -1060235884#4 -1060235884#2 -1060235884#1 -951228305#4 -951228305#1 349459713#0 349459713#2 349459713#3 349459713#5 349459713#8 349459713#9 349459713#11 1057050910#1 1057050910#3 1057050910#4 1057050910#5 -986505886#2 -71470213#9 228514822#16"/>
   <vehicle id="vehicle-25" type="passenger" color="Yellow" depart="0.25" route="trip-25"/>

   <route id="trip-26" color="Magenta" edges="174022677#7 -174022677#8 -174022677#6 -174022674#3 -174022674#1 517046027#0 517046027#1 517046027#2 168664008#6 174022681#1 174022712#1 174022712#2 425640363 304727761#1 429870959#0 429870959#3 429870959#4 44884551#0 116436243 -116436243"/>
   <vehicle id="vehicle-26" type="passenger" color="Yellow" depart="0.26" route="trip-26"/>

   <route id="trip-27" color="Magenta" edges="-304727996#5 -304727996#4 -304727996#3 -304727996#1 528899353#1 528899353#2 184293866#0 184293866#1 184293866#3 184293866#7 168663957#1 199152198#0 199152198#2 199152198#3"/>
   <vehicle id="vehicle-27" type="passenger" color="Yellow" depart="0.27" route="trip-27"/>

   <route id="trip-28" color="Magenta" edges="23243738#0 23243738#1 23243738#2 -88083355 88561232#12 88561232#13 88561232#14 88561232#15 88561232#17 951228304#0 951228304#2 951228304#3 1060235884#0 1060235884#2 1060235884#3 88561230#0 88561230#2 88561230#3 88561230#4 45018631#0 45018631#2 45018631#3 45018631#5 45018631#6 45018631#7 45018631#8 45018631#10 1056328009#0 91096667 91096670#1 91096670#2 91096670#3 91096670#6 1028570793#0 129219189 1108576327 198929903#0 198929904"/>
   <vehicle id="vehicle-28" type="passenger" color="Yellow" depart="0.28" route="trip-28"/>

   <route id="trip-29" color="Magenta" edges="-154800586#1 -88561230#1 -1060235884#4 -1060235884#2 -1060235884#1 -951228305#4 -951228305#1 349459713#0 349459713#2 349459713#3 349459713#5 349459713#8 349459713#9 349459713#11 1057050910#1 1057050910#3 1057050910#4 1057050910#5 1057050910#7 420083582 420083581#0 420083581#2 420083581#4 420083581#5 517046814#1 -120525537#11 -120525537#9 120525537#9"/>
   <vehicle id="vehicle-29" type="passenger" color="Yellow" depart="0.29" route="trip-29"/>

   <route id="trip-30" color="Magenta" edges="58672755#4 58672755#5 58672755#6 58672755#7 58672755#9 185216952#0 185216952#2 185216952#3 185216952#4 185216952#5 185216952#6 -365706952#1 1060226510#0 1060226507#0 1060226507#3 365706961#0 365706961#2 44886564#0 45018631#2 45018631#3 45018631#5 45018631#6 45018631#7 45018631#8 45018631#10 44884354#1 174022686#0 174022686#3 174022686#5 174022686#6 174022686#7 174022711#3 209210741#0 209210741#1 209210741#2 209210741#4 44883352#1"/>
   <vehicle id="vehicle-30" type="passenger" color="Yellow" depart="0.3" route="trip-30"/>

   <route id="trip-31" color="Magenta" edges="304919605#2 1028258371#0 1028258366#0 -44883356#2 209366310#2 209366310#4 209366310#5 209366310#6 174022636 174022680#0 174022680#1 174022680#3 -44884347#1 -1056330398#1 44884346#1 209210745#1 174022649 174022630#1 174022630#2 174022635#1 174022635#2 174022635#3 174022635#4 425464570#0 425464570#3 425464569 304727708 528899353#1 528899353#2 184293866#0 184293866#1 184293866#3 184293866#7 168663957#1 199152198#0 199152198#2 199152198#3 199152198#4 199152198#5 120525537#2 -449226388#2 -449226388#0 151175223#10 209210758#2"/>
   <vehicle id="vehicle-31" type="passenger" color="Yellow" depart="0.31" route="trip-31"/>

   <route id="trip-32" color="Magenta" edges="-161392595#1 161392595#1 161392595#2 -185216947#10 -185216947#9 -185216947#7 -185216947#6 -185216947#5 -185216947#4 -185216947#3 -185216947#2 -185216947#1 -185216947#0 -208649513#20 -208649513#18 -208649513#16 -208649513#15 -208649513#14 -208649513#13 -208649513#12 -208649513#11 -208649513#10 -208649513#9 -208649513#8 -208649513#6 -208649513#5 -208649513#4 -208649513#3 201348370 -161392564 161392620#2"/>
   <vehicle id="vehicle-32" type="passenger" color="Yellow" depart="0.32" route="trip-32"/>

   <route id="trip-33" color="Magenta" edges="169811755#3 -120525574#10 -120525574#8 120525578#6 120525578#7 120525578#8 31336390#14 31336390#16 169811755#0"/>
   <vehicle id="vehicle-33" type="passenger" color="Yellow" depart="0.33" route="trip-33"/>

   <route id="trip-34" color="Magenta" edges="1028241263#0 388577161#0 388577161#2 388577161#3 209210744#0 1028258371#0 1028258366#0 -44883356#2 209366310#2 209366310#4 209366310#5 209366310#6 174022636 174022680#0 174022680#1 174022680#3 -44884347#1 -1056330398#1 44884346#1 209210745#1 174022649 174022630#1 174022630#2 174022635#1 174022635#2 174022635#3 174022635#4 425464570#0 425464570#3 425464569 304727708 528899353#1 528899353#2 184293866#0 184293866#1 184293866#3 184293866#7 168663957#1 228090233#0 228090233#2 228090233#3 228090233#5 228090233#6 228090233#9 1057052866#1 184315497#1 -667865209#4 -667865209#3 -667865209#2 -667865209#0 -708004651#3 -708004651#1 667865211#0 667865211#2 -120525551#2"/>
   <vehicle id="vehicle-34" type="passenger" color="Yellow" depart="0.34" route="trip-34"/>

   <route id="trip-35" color="Magenta" edges="31133930#0 31133930#1 174022635#3 174022635#4 425464570#0 425464570#3 425464569 304727708 528899353#1 528899353#2 184293866#0 184293866#1 184293866#3 184293866#7 168663957#1 1056330394#0 1028570796#1 1028570796#2 1028570796#3 168663961#1 168663961#2 168663961#3 168663961#4 168663961#5 168663961#6 168663961#7 1028573258#0 286703487#1 286703487#3 286703487#5 286703487#7 286703487#9 286703487#10 286703487#12 286703487#13 286703487#15 -88561230#6 -88561230#3 -88561230#2 -88561230#1 -1060235884#4 -1060235884#2 -1060235884#1 1057050913#0 1057050913#2 1057050913#4 1057050913#6 1057050913#7 1057050913#8 1057054855#0 1057054855#2 1057054855#3 1057054855#4 1057054855#5 -1057054858#23 -1057054858#22 121653111#0 -121653055#4 -121653055#3 -121653055#2 -121653055#1 -121653055#0 871138585#17"/>
   <vehicle id="vehicle-35" type="passenger" color="Yellow" depart="0.35" route="trip-35"/>

   <route id="trip-36" color="Magenta" edges="-34078512#8 -34078512#7 -34078512#6 -34078512#5 -34078512#3 1060226507#3 365706961#0 365706961#2 44886564#0 45018631#2 45018631#3 45018631#5 45018631#6 45018631#7 45018631#8 45018631#10 1056328009#0 91096667 91096670#1 91096670#2 91096670#3 91096670#6 1028570793#0 198929896#0 23766689#1 23766689#3 23766689#4 23766689#5 -44884667#3 44884665#6 -44884666#3 -44884666#1 44884671#1"/>
   <vehicle id="vehicle-36" type="passenger" color="Yellow" depart="0.36" route="trip-36"/>

   <route id="trip-37" color="Magenta" edges="88954527#0 88954527#2 197530515#5 197530515#7 197530515#8 197530515#9 197530515#10 197530515#12 197530515#13 197530515#14 197530515#15 197530515#16 197530515#17 -261368286#11 -261368286#8 -261368286#7 -261368286#6 -261368286#5 -261368286#4"/>
   <vehicle id="vehicle-37" type="passenger" color="Yellow" depart="0.37" route="trip-37"/>

   <route id="trip-38" color="Magenta" edges="-190433614#8 -190433614#6 -190433614#5 -190433614#4 190433611#3 190433611#4 190433604#3 685193060#2 -1057050913#3 -1057050913#1 1060235884#0 1060235884#2 1060235884#3 88561230#0 88561230#2 88561230#3 88561230#4 168663960#0 168663960#4 168663960#6 168663960#7 168663960#10 1028619491#0 286703478#1 286703478#2 286703478#3 286703478#4 286703478#5 286703478#6 286703478#8 168663959#1 168663959#2 168663959#4 228090251#1 228090251#3 184293865#1 184293865#2 184293865#4 184293865#6 184293865#7 174022712#1 174022712#2 425640363 304727761#1 1056330392 304727809#0 25822382#1 25822382#2 25822382#3 25822382#4 -25822382#4"/>
   <vehicle id="vehicle-38" type="passenger" color="Yellow" depart="0.38" route="trip-38"/>

   <route id="trip-39" color="Magenta" edges="-616560955#9 616560955#9 71502569#7 71502569#8 71502569#9 71502569#10 71502569#11 71502569#12 71502569#14 71502569#15 71502569#17 71502569#18 744777945#1 744777945#2 744777945#3 744777945#4 744777945#5 744777945#6 744777945#7 744777945#8 744777945#9 744777945#10 744777945#11 744777945#12 744777945#13 744777945#14 744777945#15 744777945#16 744777945#17 744777945#18 744777945#19 1057054856#0 1057054856#2 1057054856#3 1057054856#4 1057054856#6 154083062#0 154083062#2 154083062#3 154083062#4 154083062#5 197530527#0 197530527#2 197530527#6 365706961#0 365706961#2 44886564#0 45018631#2 45018631#3 184250113#1 184250113#3 184250113#4 1028619489#0 1028619489#2 1028619489#4 1028619489#7 304727995#0 304727995#2"/>
   <vehicle id="vehicle-39" type="passenger" color="Yellow" depart="0.39" route="trip-39"/>

   <route id="trip-40" color="Magenta" edges="-120525529 120525573#3 120525573#4 120525573#5 120525561#1 120525561#2 120525561#3 667865208#4 667865208#5 708004651#0 708004651#2 708004651#4 667865209#1 667865209#3 667865209#4 313606688#9 313606688#10 702669087#1 702669087#5 702669087#6 702669087#7 702669087#8 228090251#1 228090251#3 184293865#1 184293865#2 184293865#4 184293865#6 184293865#7 174022712#1 304727996#1 304727996#2 304727996#4 304727996#5 304727996#6 304727996#7 -31035595#1 746533313#0 -528899358#4 -528899358#3 -30998553#1"/>
   <vehicle id="vehicle-40" type="passenger" color="Yellow" depart="0.4" route="trip-40"/>

   <route id="trip-41" color="Magenta" edges="261368286#5 261368286#6 261368286#7 261368286#8 261368286#10 197530527#0 197530527#2 197530527#6 365706961#0 365706961#2 44886564#0 45018631#2 45018631#3 45018631#5 45018631#6 91096669#5 91096669#6"/>
   <vehicle id="vehicle-41" type="passenger" color="Yellow" depart="0.41" route="trip-41"/>

   <route id="trip-42" color="Magenta" edges="120525579#4 120525563#3 667865208#0 667865208#2 667865208#4 667865208#5 708004651#0 708004651#2 708004651#4 667865209#1 667865209#3 667865209#4 313606688#9 313606688#10 702669087#1 702669087#5 702669087#6 702669087#7 702669087#8 228090251#1 228090251#3 184293865#1 184293865#2 184293865#4 184293865#6 184293865#7 174022712#1 174022712#2 425640363 304727761#1 1056330392 304727809#0 304727809#1 304727809#2 174022711#1 174022711#3 209210741#0 209210741#1 209210741#2 209210741#4 682476163#1 648435887#0 648435887#1 44884105#0 44884105#2 209210755#1 209210755#3 209210755#4 209210755#5 209210755#6 170624726#1 170624726#2 170624726#3 1028573263#1 1028573263#3 44884985#0 44884985#2 44884985#3 44884985#4 44884985#5 44884985#6 44884985#7 44884985#8 44884985#9 44884985#10 172627267#2 -184580019#3 184580019#2"/>
   <vehicle id="vehicle-42" type="passenger" color="Yellow" depart="0.42" route="trip-42"/>

   <route id="trip-43" color="Magenta" edges="120588503#9 -120588896#1 1057050910#3 1057050910#4 1057050910#5 986505886#4 986505886#7 228076698#1 228076698#3 228076698#4 228076698#5 228076698#6 228076698#7 228076698#8 228076698#9 228076698#10 228076698#12 228076698#14 228076698#15 746884464#1 746884464#2 31303247#10 31303247#12 31303247#13 31303247#15 31303247#17 31303247#19 -229244611#1 229244611#0"/>
   <vehicle id="vehicle-43" type="passenger" color="Yellow" depart="0.43" route="trip-43"/>

   <route id="trip-44" color="Magenta" edges="-31280270#3 -31280270#2 116436239#0 116436239#2 1144401619#0 -1144401620#3 -1144401620#2 -1144401620#1 -228090234#14 -228090234#12 -228090234#11 -228090234#10 -228090234#8 -228090234#7 -228090234#5 -228090234#3 -228090234#2 -228090234#1 -1057050913#9 -1057050913#7 -1057050913#6 -1057050913#5 -1057050913#3 -1057050913#1 -951228305#4 -951228305#1 349459713#0 349459713#2 349459713#3 349459713#5 349459713#8 349459713#9 349459713#11 59262035#0 59262035#2 59262035#4 743631281#1 58209119#7 -154806084#5"/>
   <vehicle id="vehicle-44" type="passenger" color="Yellow" depart="0.44" route="trip-44"/>

   <route id="trip-45" color="Magenta" edges="-154800535#3 -154800535#2 -154800535#1 -154800535#0 154800535#0 154800535#1 154800535#2 154800535#3 154800535#4 154800535#5 -228090234#12 -228090234#11 -228090234#10 -228090234#8 -228090234#7 -228090234#5 -228090234#3 -228090234#2 -228090234#1 -1057050913#9 -1057050913#7 -1057050913#6 -1057050913#5 -1057050913#3 -1057050913#1 -951228305#4 -951228305#1 349459713#0 349459713#2 349459713#3 349459713#5 349459713#8 349459713#9 349459713#11 1057050910#1 1057050910#3 1057050910#4 1057050910#5 1057050910#7 420083582 1057052866#1 184315497#1 -667865209#4 -667865209#3 -667865209#2 -667865209#0 228076693#4 228511426#0 228511426#2 228511426#4 120525581#1 120525581#2 120525581#3 407976665"/>
   <vehicle id="vehicle-45" type="passenger" color="Yellow" depart="0.45" route="trip-45"/>

   <route id="trip-46" color="Magenta" edges="-368074417#3 368074417#2 1028570792#3 45018632#0 174022720#5 174022720#7-AddedOnRampEdge 174022720#7"/>
   <vehicle id="vehicle-46" type="passenger" color="Yellow" depart="0.46" route="trip-46"/>

   <route id="trip-47" color="Magenta" edges="-161392513#1 -161392513#0 -116436279#13 -116436279#12 -116436279#10 -116436279#9 -116436279#8 -116436279#7 -116436279#6 -116436279#5 -116436279#4 -116436279#2 -116436279#1 -116436279#0 -1057054858#1 -1057054858#0 -679937858#3 -679937858#2 -679937858#1"/>
   <vehicle id="vehicle-47" type="passenger" color="Yellow" depart="0.47" route="trip-47"/>

   <route id="trip-48" color="Magenta" edges="185216951#4 185216951#5 185216951#6 185216951#7 208649513#21 208649513#22 208649513#23 208649513#24 208649513#25 208649513#27 208649513#28 1056779401#0 1056779401#1 1056779406#0 46655427#2 46655427#3 -228090234#14 -228090234#12 -228090234#11 -228090234#10 -228090234#8 -228090234#7 -228090234#5 -228090234#3 -228090234#2 -228090234#1 -1057050913#9 -1057050913#7 -1057050913#6 -1057050913#5 -1057050913#3 -1057050913#1 -951228305#4 -951228305#1 349459713#0 349459713#2 349459713#3 349459713#5 349459713#8 349459713#9 349459713#11 59262035#0 59262035#2 59262035#4 743631281#1 744266431#5"/>
   <vehicle id="vehicle-48" type="passenger" color="Yellow" depart="0.48" route="trip-48"/>

   <route id="trip-49" color="Magenta" edges="190552056#9 190552056#11 190552056#12 31280575#0 951228304#0 951228304#2 951228304#3 1060235884#0 1060235884#2 1060235884#3 88561230#0 88561230#2 88561230#3 88561230#4 45018631#0 45018631#2 45018631#3 45018631#5 45018631#6 45018631#7 45018631#8 45018631#10 1056328009#0 91096667 91096670#1 91096670#2 91096670#3 91096670#6 1028570793#0 198929896#0 23766689#1 23766689#3 23766689#4 23766689#5 -44884667#3 44884665#6 44884666#4"/>
   <vehicle id="vehicle-49" type="passenger" color="Yellow" depart="0.49" route="trip-49"/>

   <route id="trip-50" color="Magenta" edges="-44838844#1 44838852#0 44838852#1 44884380#3 44884380#4 44884380#5 44884380#6 44884380#9 1056328005#0 1056328010 174022664#1 91096669#0 91096669#1 91096669#3 91096669#4 91096669#5 91096669#6 91096669#8 45018631#3"/>
   <vehicle id="vehicle-50" type="passenger" color="Yellow" depart="0.5" route="trip-50"/>

   <route id="trip-51" color="Magenta" edges="161392603#1 161392603#2 208649513#6 208649513#8 208649513#9 208649513#10 208649513#11 208649513#12 208649513#13 208649513#14 208649513#15 208649513#16 208649513#18 208649513#19 208649513#21 208649513#22 208649513#23 208649513#24 208649513#25 208649513#27 208649513#28 1056779401#0 1056779401#1 1056779406#0 46655427#2 46655427#3 -228090234#14 -228090234#12 -228090234#11 -228090234#10 -228090234#8 -228090234#7 -228090234#5 -228090234#3 -228090234#2 -228090234#1 -1057050913#9 -1057050913#7 -1057050913#6 -1057050913#5 -1057050913#3 -1057050913#1 -951228305#4 -951228305#1 349459713#0 349459713#2 349459713#3 349459713#5 349459713#8 349459713#9 349459713#11 1057050910#1 1057050910#3 1057050910#4 1057050910#5 1057050910#7 420083582 1057052866#1 184315497#1 184315497#2 184315497#3 184315497#4 184315497#5 184315497#7 184315497#8 184315497#9 184315497#10 184315497#11 184315497#12 -71470206#26 -71470206#23 -71470206#21 -71470206#20 -71470206#17 -71470206#15 -71470206#14 71470206#14 71470206#15"/>
   <vehicle id="vehicle-51" type="passenger" color="Yellow" depart="0.51" route="trip-51"/>

   <route id="trip-52" color="Magenta" edges="-261473607 261473607 -871138585#14 -871138585#13 -871138585#12 34078513#12 792462092#0 -116436279#12"/>